ieee39_falta_barra4.ana
DANA
IEEE 39 BUS SYSTEM - FALTA FASE-TERRA NA BARRA 4 (BASE 100 MVA)
DBAR
    1 0
    2 0
    3 0
    4 0
    5 0
    6 0
    7 0
    8 0
    9 0
   10 0
   11 0
   12 0
   13 0
   14 0
   15 0
   16 0
   17 0
   18 0
   19 0
   20 0
   21 0
   22 0
   23 0
   24 0
   25 0
   26 0
   27 0
   28 0
   29 0
   30 0
   31 0
   32 0
   33 0
   34 0
   35 0
   36 0
   37 0
   38 0
   39 0
DLIN
( Sequencia positiva = ieee39_base.pwf; sequencia zero: R0=3R1  X0=3X1  B0=B1/3 )
( DE  PARA  CIRC   R1      X1      B1      R0      X0      B0  )
    1    2 1 0.0035 0.0411 0.6987 0.0105 0.1233 0.2329
    1   39 1 0.0010 0.0250 0.7500 0.0030 0.0750 0.2500
    2    3 1 0.0013 0.0151 0.2572 0.0039 0.0453 0.0857
    2   25 1 0.0070 0.0086 0.1460 0.0210 0.0258 0.0487
    3    4 1 0.0013 0.0213 0.2214 0.0039 0.0639 0.0738
    3   18 1 0.0011 0.0133 0.2138 0.0033 0.0399 0.0713
    4    5 1 0.0008 0.0128 0.1342 0.0024 0.0384 0.0447
    4   14 1 0.0008 0.0129 0.1382 0.0024 0.0387 0.0461
    5    6 1 0.0002 0.0026 0.0434 0.0006 0.0078 0.0145
    5    8 1 0.0008 0.0112 0.1476 0.0024 0.0336 0.0492
    6    7 1 0.0006 0.0092 0.1130 0.0018 0.0276 0.0377
    6   11 1 0.0007 0.0082 0.1389 0.0021 0.0246 0.0463
    7    8 1 0.0004 0.0046 0.0780 0.0012 0.0138 0.0260
    8    9 1 0.0023 0.0363 0.3804 0.0069 0.1089 0.1268
    9   39 1 0.0010 0.0250 1.2000 0.0030 0.0750 0.4000
   10   11 1 0.0004 0.0043 0.0729 0.0012 0.0129 0.0243
   10   13 1 0.0004 0.0043 0.0729 0.0012 0.0129 0.0243
   13   14 1 0.0009 0.0101 0.1723 0.0027 0.0303 0.0574
   14   15 1 0.0018 0.0217 0.3660 0.0054 0.0651 0.1220
   15   16 1 0.0009 0.0094 0.1710 0.0027 0.0282 0.0570
   16   17 1 0.0007 0.0089 0.1342 0.0021 0.0267 0.0447
   16   19 1 0.0016 0.0195 0.3040 0.0048 0.0585 0.1013
   16   21 1 0.0008 0.0135 0.2548 0.0024 0.0405 0.0849
   16   24 1 0.0003 0.0059 0.0680 0.0009 0.0177 0.0227
   17   18 1 0.0007 0.0082 0.1319 0.0021 0.0246 0.0440
   17   27 1 0.0013 0.0173 0.3216 0.0039 0.0519 0.1072
   21   22 1 0.0008 0.0140 0.2565 0.0024 0.0420 0.0855
   22   23 1 0.0006 0.0096 0.1846 0.0018 0.0288 0.0615
   23   24 1 0.0022 0.0350 0.3610 0.0066 0.1050 0.1203
   25   26 1 0.0032 0.0323 0.5130 0.0096 0.0969 0.1710
   26   27 1 0.0014 0.0147 0.2396 0.0042 0.0441 0.0799
   26   28 1 0.0043 0.0474 0.7802 0.0129 0.1422 0.2601
   26   29 1 0.0057 0.0625 1.0290 0.0171 0.1875 0.3430
   28   29 1 0.0014 0.0151 0.2490 0.0042 0.0453 0.0830
DTRF
( DE  PARA CIRC   R1      X1     TAP  )
( Seq. zero depende da configuracao de enrolamento - verificar PDF )
   12   11 1 0.0016 0.0435 1.006
   12   13 1 0.0016 0.0435 1.006
    6   31 1 0.0000 0.0250 1.070
   10   32 1 0.0000 0.0200 1.070
   19   33 1 0.0007 0.0142 1.070
   20   34 1 0.0009 0.0180 1.009
   22   35 1 0.0000 0.0143 1.025
   23   36 1 0.0005 0.0272 1.000
   25   37 1 0.0006 0.0232 1.025
    2   30 1 0.0000 0.0181 1.025
   29   38 1 0.0008 0.0156 1.025
   19   20 1 0.0007 0.0138 1.060
DMAC
( BARRA  MVABASE   X1      X2      X0  )
   30 100.0 0.0310 0.0310 0.0310
   31 100.0 0.0060 0.0060 0.0060
   32 100.0 0.0697 0.0697 0.0697
   33 100.0 0.0531 0.0531 0.0531
   34 100.0 0.0436 0.0436 0.0436
   35 100.0 0.0500 0.0500 0.0500
   36 100.0 0.0490 0.0490 0.0490
   37 100.0 0.0463 0.0463 0.0463
   38 100.0 0.0250 0.0250 0.0250
   39 100.0 0.0200 0.0200 0.0200
DALT
FAUL 4 FT
FIM
